Es un archivo. lo tengo en mi ordenador.
I am follwing the course on platzi.
third line.

This document serves to track changes and practice the github course.

This belongs to the branch1.

New line.
